data_image0
_chemical_formula_structural       C20H32
_chemical_formula_sum              "C20 H32"
_cell_length_a       6.639
_cell_length_b       6.639
_cell_length_c       8.918
_cell_angle_alpha    90.0
_cell_angle_beta     90.0
_cell_angle_gamma    90.0

_space_group_name_H-M_alt    "P 1"
_space_group_IT_number       1

loop_
  _space_group_symop_operation_xyz
  'x, y, z'

loop_
  _atom_site_type_symbol
  _atom_site_label
  _atom_site_symmetry_multiplicity
  _atom_site_fract_x
  _atom_site_fract_y
  _atom_site_fract_z
  _atom_site_occupancy
  C   C1        1.0  0.991347273685796  0.9913476442235276  0.1994850190625701  1.0000
  C   C2        1.0  0.9666132037957523  0.17940801626751016  0.09991965687373852  1.0000
  C   C3        1.0  0.15398812923633076  0.20416757794848625  0.9995056021529493  1.0000
  C   C4        1.0  0.01608138876336798  0.8032872902545564  0.09991960753532184  1.0000
  C   C5        1.0  0.7785276306672692  0.1539885524928453  0.0004944124243103834  1.0000
  C   C6        1.0  0.17940751920469952  0.01608199276999548  0.9000804575016821  1.0000
  C   C7        1.0  0.8287064362102726  0.7785277104985692  0.999505599910294  1.0000
  C   C8        1.0  0.20416692423557767  0.8287067555354722  0.0004943978470509084  1.0000
  C   C9        1.0  0.8032870567856606  0.9666133574333484  0.9000804597443374  1.0000
  C   C10       1.0  0.9913472074107547  0.9913476577797862  0.8005149495402557  1.0000
  C   C11       1.0  0.49134731887332433  0.4913476984485615  0.3005148508634223  1.0000
  C   C12       1.0  0.4913473565295978  0.49134766079228803  0.6994848755326306  1.0000
  C   C13       1.0  0.5160813420695888  0.6794080418737761  0.4000802478134111  1.0000
  C   C14       1.0  0.679407556860973  0.4666133303208314  0.5999193911190851  1.0000
  C   C15       1.0  0.4666132595270372  0.3032872977858111  0.40008020071764977  1.0000
  C   C16       1.0  0.303287095948185  0.5160819671637294  0.5999194146669657  1.0000
  C   C17       1.0  0.32870640457900285  0.7041675884922427  0.5004943058981834  1.0000
  C   C18       1.0  0.7041669558668474  0.6539885253803284  0.49950547320026917  1.0000
  C   C19       1.0  0.6539882060551288  0.2785277330923332  0.5004942599237497  1.0000
  C   C20       1.0  0.2785276743485465  0.3287068052417533  0.4995054317111461  1.0000
  H   H1        1.0  0.12369793794246121  0.008652342220213887  0.273043095985647  1.0000
  H   H2        1.0  0.9491984681427926  0.3141207064316915  0.17123641623682442  1.0000
  H   H3        1.0  0.2893057222473264  0.22616808254255158  0.06917029827315542  1.0000
  H   H4        1.0  0.13807020485012803  0.33966422051513784  0.9288508880915004  1.0000
  H   H5        1.0  0.8589966365416478  0.9740429612893509  0.27304309710697466  1.0000
  H   H6        1.0  0.033496085253803286  0.6685745955716224  0.1712364027808926  1.0000
  H   H7        1.0  0.7565274453984034  0.2893055942159964  0.9308289829558197  1.0000
  H   H8        1.0  0.6430307139629462  0.1380709896068685  0.0711488147566719  1.0000
  H   H9        1.0  0.31412057990661246  0.03349637897273686  0.8287640973312402  1.0000
  H   H10       1.0  0.6933888251242657  0.7565272164482603  0.0691702825745683  1.0000
  H   H11       1.0  0.8446243621027263  0.6430310709444194  0.928850866786275  1.0000
  H   H12       1.0  0.2261671079981925  0.6933896957373098  0.930828969499888  1.0000
  H   H13       1.0  0.3396638379273987  0.8446243018526887  0.07114880915003366  1.0000
  H   H14       1.0  0.66857398403374  0.949198920018075  0.8287640883606191  1.0000
  H   H15       1.0  0.97404182406989  0.12369798764874228  0.726956627046423  1.0000
  H   H16       1.0  0.008652726314203947  0.8589973987046242  0.7269566169544741  1.0000
  H   H17       1.0  0.3589966305166441  0.5086524069890044  0.22695680533751966  1.0000
  H   H18       1.0  0.5086527157704474  0.6236979228799518  0.7730432484862078  1.0000
  H   H19       1.0  0.6236979650549782  0.47404300798313  0.22695680085220904  1.0000
  H   H20       1.0  0.4740418752824221  0.3589973746046091  0.7730432608208119  1.0000
  H   H21       1.0  0.5334961063413165  0.8141207425817141  0.32876346153846153  1.0000
  H   H22       1.0  0.8141205829191144  0.4491989576743486  0.6712357524108545  1.0000
  H   H23       1.0  0.4491985133303208  0.1685746226841392  0.3287634133213725  1.0000
  H   H24       1.0  0.16857400060250038  0.5334963262539539  0.6712357524108545  1.0000
  H   H25       1.0  0.19338886729929208  0.7261680735050459  0.43082957277416467  1.0000
  H   H26       1.0  0.7261671064919416  0.7893056439222774  0.5691709037900875  1.0000
  H   H27       1.0  0.7893057568910982  0.25652727217954513  0.4308295537115946  1.0000
  H   H28       1.0  0.25652749209218256  0.19338968820605515  0.5691708510876878  1.0000
  H   H29       1.0  0.34462435607772257  0.8396641994276246  0.5711489964117517  1.0000
  H   H30       1.0  0.839663883114927  0.638071052869408  0.4288510428347163  1.0000
  H   H31       1.0  0.6380702500376564  0.14303112818195513  0.5711489504373178  1.0000
  H   H32       1.0  0.14303073203795752  0.3446243093839434  0.4288510136801974  1.0000
