data_image0
_chemical_formula_structural       C24H24
_chemical_formula_sum              "C24 H24"
_cell_length_a       7.39
_cell_length_b       9.42
_cell_length_c       6.81
_cell_angle_alpha    90.0
_cell_angle_beta     90.0
_cell_angle_gamma    90.0

_space_group_name_H-M_alt    "P 1"
_space_group_IT_number       1

loop_
  _space_group_symop_operation_xyz
  'x, y, z'

loop_
  _atom_site_type_symbol
  _atom_site_label
  _atom_site_symmetry_multiplicity
  _atom_site_fract_x
  _atom_site_fract_y
  _atom_site_fract_z
  _atom_site_occupancy
  C   C1        1.0  0.9399657483085251  0.1406387314225053  0.993606208516887  1.0000
  C   C2        1.0  0.8620300419485792  0.04524588853503185  0.12612991042584434  1.0000
  C   C3        1.0  0.0774863193504736  0.09524678874734607  0.8675339632892805  1.0000
  C   C4        1.0  0.9225136847090664  0.9047532091295117  0.132466046989721  1.0000
  C   C5        1.0  0.13796995805142084  0.9547541114649682  0.873870093979442  1.0000
  C   C6        1.0  0.060034258457374826  0.8593612696390658  0.0063938017621145374  1.0000
  C   C7        1.0  0.5600342516914749  0.6406387123142251  0.993606208516887  1.0000
  C   C8        1.0  0.9399657415426252  0.35936127388535033  0.4936061938325991  1.0000
  C   C9        1.0  0.5600342381596751  0.8593612675159236  0.49360622613803234  1.0000
  C   C10       1.0  0.4399657537212449  0.3593612845010616  0.006393791483113069  1.0000
  C   C11       1.0  0.060034251691474964  0.6406387261146497  0.5063938046989721  1.0000
  C   C12       1.0  0.4399657564276048  0.14063872929936308  0.5063937826725404  1.0000
  C   C13       1.0  0.637969953991881  0.5452458853503186  0.126129906020558  1.0000
  C   C14       1.0  0.862030046008119  0.45475410828025475  0.6261299118942731  1.0000
  C   C15       1.0  0.6379699675236806  0.9547541082802548  0.6261299177679883  1.0000
  C   C16       1.0  0.36203004600811906  0.45475411146496814  0.8738700998531571  1.0000
  C   C17       1.0  0.13796995399188092  0.5452458917197452  0.3738700910425844  1.0000
  C   C18       1.0  0.3620300324763193  0.04524588853503185  0.3738700866372981  1.0000
  C   C19       1.0  0.4225136874154262  0.5952467685774947  0.8675339750367107  1.0000
  C   C20       1.0  0.0774863098782138  0.4047532176220807  0.3675339559471366  1.0000
  C   C21       1.0  0.4225136725304465  0.904753212314225  0.3675339838472834  1.0000
  C   C22       1.0  0.5774863166441138  0.4047532292993631  0.1324660234948605  1.0000
  C   C23       1.0  0.9225136860622463  0.5952467802547771  0.6324660411160059  1.0000
  C   C24       1.0  0.5774863247631935  0.09524678556263269  0.6324660279001468  1.0000
  H   H1        1.0  0.8936229648173207  0.2504891995753715  0.9883324317180617  1.0000
  H   H2        1.0  0.7536779891745602  0.07929086305732484  0.2240732731277533  1.0000
  H   H3        1.0  0.13725856698240865  0.16915040233545647  0.7630336534508076  1.0000
  H   H4        1.0  0.8627414330175914  0.8308495966029724  0.2369663509544787  1.0000
  H   H5        1.0  0.24632201082543978  0.9207091358811041  0.7759267312775331  1.0000
  H   H6        1.0  0.10637703653585925  0.7495107993630573  0.01166757268722467  1.0000
  H   H7        1.0  0.6063770338294993  0.7504892101910828  0.9883324302496329  1.0000
  H   H8        1.0  0.8936229607577808  0.24951079511677282  0.488332422907489  1.0000
  H   H9        1.0  0.6063770405953992  0.7495107887473461  0.4883324331864905  1.0000
  H   H10       1.0  0.39362296617050063  0.24951078768577495  0.011667574155653452  1.0000
  H   H11       1.0  0.10637703924221922  0.7504892027600849  0.5116675814977973  1.0000
  H   H12       1.0  0.39362295940460085  0.25048920912951167  0.5116675712187959  1.0000
  H   H13       1.0  0.74632199864682  0.5792908630573248  0.22407326284875184  1.0000
  H   H14       1.0  0.7536779945872801  0.42070913057324844  0.7240732628487518  1.0000
  H   H15       1.0  0.7463219999999999  0.9207091369426751  0.7240732569750368  1.0000
  H   H16       1.0  0.25367800135317997  0.4207091348195329  0.7759267415565345  1.0000
  H   H17       1.0  0.2463220054127199  0.5792908683651805  0.2759267415565345  1.0000
  H   H18       1.0  0.253678  0.0792908609341826  0.27592674743024964  1.0000
  H   H19       1.0  0.3627414330175913  0.6691503970276009  0.7630336475770926  1.0000
  H   H20       1.0  0.13725856968876862  0.3308496050955414  0.26303364317180616  1.0000
  H   H21       1.0  0.3627414235453315  0.8308495912951168  0.2630336417033774  1.0000
  H   H22       1.0  0.6372585669824086  0.3308495997876858  0.23696635535976504  1.0000
  H   H23       1.0  0.8627414303112313  0.6691503938428875  0.7369663597650514  1.0000
  H   H24       1.0  0.6372585764546684  0.169150406581741  0.736966362701909  1.0000
