data_image0
_chemical_formula_structural       C16H20N12O4
_chemical_formula_sum              "C16 H20 N12 O4"
_cell_length_a       13.044
_cell_length_b       9.496
_cell_length_c       3.814
_cell_angle_alpha    90.0
_cell_angle_beta     90.0
_cell_angle_gamma    90.0

_space_group_name_H-M_alt    "P 1"
_space_group_IT_number       1

loop_
  _space_group_symop_operation_xyz
  'x, y, z'

loop_
  _atom_site_type_symbol
  _atom_site_label
  _atom_site_symmetry_multiplicity
  _atom_site_fract_x
  _atom_site_fract_y
  _atom_site_fract_z
  _atom_site_occupancy
  C   C1        1.0  0.9836764021772462  0.15414579085930918  0.32457952805453594  1.0000
  C   C2        1.0  0.5163238646120821  0.8458523294018533  0.8245795097011012  1.0000
  C   C3        1.0  0.016323080343452926  0.6541470187447346  0.1754249528054536  1.0000
  C   C4        1.0  0.4836785211591536  0.3458522441027801  0.6754245673833246  1.0000
  C   C5        1.0  0.1307482053051211  0.2639922272535804  0.550443597273204  1.0000
  C   C6        1.0  0.3692509805274455  0.736009151221567  0.05044036444677504  1.0000
  C   C7        1.0  0.8692517417969948  0.763988598357203  0.9495592973256424  1.0000
  C   C8        1.0  0.6307509383624655  0.23600937447346249  0.44956066858940746  1.0000
  C   C9        1.0  0.17083995783501993  0.1328525442291491  0.6730872784478238  1.0000
  C   C10       1.0  0.32916058034345286  0.8671475463352991  0.17308826166754063  1.0000
  C   C11       1.0  0.829161293314934  0.6328510930918281  0.8269135605663345  1.0000
  C   C12       1.0  0.6708405857099049  0.367147845408593  0.32691549816465654  1.0000
  C   C13       1.0  0.11323895277522232  0.015925081086773377  0.6118157131620346  1.0000
  C   C14       1.0  0.38676111698865373  0.9840749189132266  0.11181648138437336  1.0000
  C   C15       1.0  0.886760642440969  0.5159241859730412  0.8881833245936026  1.0000
  C   C16       1.0  0.613240018399264  0.4840751727042965  0.3881880125852124  1.0000
  H   H1        1.0  0.989341936522539  0.9321316248946925  0.3458400498164656  1.0000
  H   H2        1.0  0.5106588086476541  0.06786660278011794  0.8458410723649712  1.0000
  H   H3        1.0  0.010658063477460901  0.43213318976411114  0.1541613214472994  1.0000
  H   H4        1.0  0.48934265639374425  0.5678666322662174  0.654162826428946  1.0000
  H   H5        1.0  0.15449364612082184  0.47775734414490306  0.5179496670162559  1.0000
  H   H6        1.0  0.34550578656853725  0.5222445766638585  0.017947582590456212  1.0000
  H   H7        1.0  0.845505673106409  0.9777531034119629  0.9820524174095437  1.0000
  H   H8        1.0  0.6544966475007666  0.02224635741364785  0.48205380964866285  1.0000
  H   H9        1.0  0.2583938293468261  0.3768904696714406  0.685559635553225  1.0000
  H   H10       1.0  0.24160505059797605  0.6231097546335299  0.1855581253277399  1.0000
  H   H11       1.0  0.7416050804967801  0.876887397851727  0.8144426245411641  1.0000
  H   H12       1.0  0.7583979883471327  0.12311213142375735  0.3144438725747247  1.0000
  H   H13       1.0  0.24362503449862002  0.12863753791069923  0.8097797168327215  1.0000
  H   H14       1.0  0.2563753365532045  0.8713633203454086  0.30978013896172  1.0000
  H   H15       1.0  0.7563761453541857  0.6286358129738837  0.6902194126900891  1.0000
  H   H16       1.0  0.7436261530205458  0.37136376895534956  0.19022090980597797  1.0000
  H   H17       1.0  0.13500095829500153  0.9098940701347936  0.692319389092816  1.0000
  H   H18       1.0  0.36500067847286105  0.09010606676495365  0.19231841373885686  1.0000
  H   H19       1.0  0.8650012051517938  0.4098920134793597  0.8076817960146827  1.0000
  H   H20       1.0  0.6350005243790248  0.5901070787700085  0.30768378080755115  1.0000
  N   N1        1.0  0.022337553664520084  0.025680889848357202  0.44072930519140013  1.0000
  N   N2        1.0  0.4776636415210058  0.9743196703875315  0.9407251206082853  1.0000
  N   N3        1.0  0.9776640900030664  0.5256785025273799  0.05927818038804405  1.0000
  N   N4        1.0  0.522336898957375  0.4743198030749789  0.5592784950183535  1.0000
  N   N5        1.0  0.03951008816314014  0.272497349410278  0.3860441976927111  1.0000
  N   N6        1.0  0.46048905167126647  0.7275024884161752  0.8860409229155742  1.0000
  N   N7        1.0  0.960489383624655  0.7724960098989048  0.11396101206082854  1.0000
  N   N8        1.0  0.5395127920883164  0.22750277169334457  0.6139635841636077  1.0000
  N   N9        1.0  0.184168764182766  0.38313737784330243  0.6002522233875196  1.0000
  N   N10       1.0  0.3158290731370745  0.616863700505476  0.10024737021499738  1.0000
  N   N11       1.0  0.8158286683532658  0.8831348315080033  0.8997485186156267  1.0000
  N   N12       1.0  0.6841729017172646  0.11686453770008425  0.3997535579444153  1.0000
  O   O1        1.0  0.8996303350199325  0.1565529254422915  0.16201702936549556  1.0000
  O   O2        1.0  0.6003708256669733  0.8434452769587193  0.6620213214472994  1.0000
  O   O3        1.0  0.10037004293161605  0.6565533098146588  0.3379862899842685  1.0000
  O   O4        1.0  0.39963026602269236  0.34344432708508843  0.8379835500786575  1.0000
