data_image0
_chemical_formula_structural       C4H4O8
_chemical_formula_sum              "C4 H4 O8"
_cell_length_a       5.33
_cell_length_b       6.015
_cell_length_c       5.4359976142838775
_cell_angle_alpha    90.0
_cell_angle_beta     115.83002981066406
_cell_angle_gamma    90.0

_space_group_name_H-M_alt    "P 1"
_space_group_IT_number       1

loop_
  _space_group_symop_operation_xyz
  'x, y, z'

loop_
  _atom_site_type_symbol
  _atom_site_label
  _atom_site_symmetry_multiplicity
  _atom_site_fract_x
  _atom_site_fract_y
  _atom_site_fract_z
  _atom_site_occupancy
  C   C1        1.0  0.14369176022167895  0.0030489891936824605  0.9983187073488266  1.0000
  C   C2        1.0  0.856308239778321  0.9969510108063177  0.0016812926511734372  1.0000
  C   C3        1.0  0.8563082370763954  0.5030489941812136  0.5016814132343053  1.0000
  C   C4        1.0  0.14369176292360455  0.4969510058187864  0.4983185867656946  1.0000
  H   H1        1.0  0.5192221460152674  0.898542098088113  0.19190132416629024  1.0000
  H   H2        1.0  0.4807778539847325  0.10145790191188696  0.8080986758337096  1.0000
  H   H3        1.0  0.4807778291872738  0.3985420665004156  0.308098767803895  1.0000
  H   H4        1.0  0.5192221708127261  0.6014579334995843  0.6919012321961049  1.0000
  O   O1        1.0  0.18077250370384082  0.10545618121363258  0.8211407716094169  1.0000
  O   O2        1.0  0.3329934388661677  0.8920563308395677  0.2023553625771272  1.0000
  O   O3        1.0  0.8192274962961591  0.8945438187863674  0.17885922839058305  1.0000
  O   O4        1.0  0.667006561133832  0.10794366916043226  0.7976446374228726  1.0000
  O   O5        1.0  0.8192275655464953  0.6054561762261015  0.6788593040105131  1.0000
  O   O6        1.0  0.18077243536169532  0.3945438237738986  0.32114069803326867  1.0000
  O   O7        1.0  0.6670066104864101  0.3920562909393184  0.2976447907065149  1.0000
  O   O8        1.0  0.3329933895135897  0.6079437107231921  0.7023552092934849  1.0000
