data_image0
_chemical_formula_structural       C18H18N18
_chemical_formula_sum              "C18 H18 N18"
_cell_length_a       9.647
_cell_length_b       9.647002537187394
_cell_length_c       7.281
_cell_angle_alpha    90.0
_cell_angle_beta     90.0
_cell_angle_gamma    119.99999129994221

_space_group_name_H-M_alt    "P 1"
_space_group_IT_number       1

loop_
  _space_group_symop_operation_xyz
  'x, y, z'

loop_
  _atom_site_type_symbol
  _atom_site_label
  _atom_site_symmetry_multiplicity
  _atom_site_fract_x
  _atom_site_fract_y
  _atom_site_fract_z
  _atom_site_occupancy
  C   C1        1.0  4.438295001780989e-08  0.13524541477398544  0.24999999587968688  1.0000
  C   C2        1.0  0.9999999702896947  0.8647545876199197  0.7499999793984343  1.0000
  C   C3        1.0  0.8647544339877771  0.8647544116678936  0.24999992583436342  1.0000
  C   C4        1.0  0.13524566546210645  0.1352456338163037  0.7500000920203269  1.0000
  C   C5        1.0  0.13524549745236986  2.1545146058135986e-08  0.2500000082406263  1.0000
  C   C6        1.0  0.8647545644653768  0.9999999820457116  0.7499999381953029  1.0000
  C   C7        1.0  0.6666400505862774  0.4685682819541448  0.5833232495536327  1.0000
  C   C8        1.0  0.6666400353541534  0.1980717800479978  0.08332320423018817  1.0000
  C   C9        1.0  0.5314315681809306  0.19807163641369074  0.5833231795083094  1.0000
  C   C10       1.0  0.801928430975061  0.46856845311836065  0.08332327015519846  1.0000
  C   C11       1.0  0.8019283186505861  0.33336000622415335  0.5833232042301881  1.0000
  C   C12       1.0  0.5314316764687645  0.3333599487704305  0.08332322757862931  1.0000
  C   C13       1.0  0.33336003299797956  0.8019282654361995  0.9166767943963742  1.0000
  C   C14       1.0  0.33335997942040646  0.5314316785464208  0.4166767339651147  1.0000
  C   C15       1.0  0.1980715294740942  0.5314315444877343  0.9166767957698119  1.0000
  C   C16       1.0  0.4685685185520981  0.8019284126613642  0.4166767394588656  1.0000
  C   C17       1.0  0.4685683651437559  0.6666400225027082  0.9166767889026234  1.0000
  C   C18       1.0  0.19807171125021206  0.6666399913819416  0.4166767737948084  1.0000
  H   H1        1.0  0.9999999783627529  0.24848067819331981  0.25000003570938056  1.0000
  H   H2        1.0  6.533445882713089e-08  0.7515193242005854  0.7499999656640571  1.0000
  H   H3        1.0  0.7515191643613497  0.7515191745815155  0.249999971157808  1.0000
  H   H4        1.0  0.2484808918179295  0.24848083619105757  0.7500000439500069  1.0000
  H   H5        1.0  0.24848086622696108  0.9999999868335219  0.24999999038593598  1.0000
  H   H6        1.0  0.7515191876758067  1.3166478146638659e-08  0.749999990385936  1.0000
  H   H7        1.0  0.6666453764051793  0.5817995762787942  0.5833358357368493  1.0000
  H   H8        1.0  0.6666454878588765  0.08484588397938848  0.08333577255871447  1.0000
  H   H9        1.0  0.418200329134136  0.08484575829936981  0.583335769811839  1.0000
  H   H10       1.0  0.9151542903379108  0.5817996887923348  0.08333584809778877  1.0000
  H   H11       1.0  0.9151542678384659  0.3333545852260146  0.5833357849196539  1.0000
  H   H12       1.0  0.41820033030773146  0.33335459240772997  0.08333584397747563  1.0000
  H   H13       1.0  0.3333545653709886  0.9151541291870897  0.9166642384287872  1.0000
  H   H14       1.0  0.33335465840082273  0.41820042491815834  0.4166641395412718  1.0000
  H   H15       1.0  0.08484571109382896  0.4182003016320448  0.9166641862381542  1.0000
  H   H16       1.0  0.5817997335424478  0.9151542488823456  0.4166641752506524  1.0000
  H   H17       1.0  0.5817996960336681  0.666645375274551  0.9166641752506524  1.0000
  H   H18       1.0  0.08484576426441709  0.6666454375160841  0.41666419859909354  1.0000
  N   N1        1.0  0.8574115626876728  0.9999999616975181  0.2500000260953166  1.0000
  N   N2        1.0  0.14258850924380984  5.984762793926663e-08  0.749999990385936  1.0000
  N   N3        1.0  2.1605316340453738e-08  0.8574116343788715  0.24999994231561598  1.0000
  N   N4        1.0  6.308598824909727e-08  0.1425883919540849  0.7500000466968822  1.0000
  N   N5        1.0  0.1425885043413542  0.14258841948399376  0.25000001236093944  1.0000
  N   N6        1.0  0.8574115573845725  0.8574116044550575  0.7499999409421783  1.0000
  N   N7        1.0  0.5240616180667419  0.3332984014698578  0.5833312992720779  1.0000
  N   N8        1.0  0.8092368145353903  0.33329849483215734  0.08333126905644829  1.0000
  N   N9        1.0  0.6667015585235322  0.19076325595035043  0.5833312086251888  1.0000
  N   N10       1.0  0.6667015995861021  0.47593834377674443  0.08333135146271117  1.0000
  N   N11       1.0  0.8092368110565602  0.4759383593371277  0.5833312869111386  1.0000
  N   N12       1.0  0.5240615988646736  0.19076323919301458  0.08333126768301058  1.0000
  N   N13       1.0  0.1907632242251582  0.6667015267129888  0.9166687652794946  1.0000
  N   N14       1.0  0.47593843995093327  0.6667016212722409  0.4166686567779151  1.0000
  N   N15       1.0  0.33329837635745313  0.5240616143299162  0.9166686732591677  1.0000
  N   N16       1.0  0.3332984799907211  0.8092367464435547  0.41666875017167976  1.0000
  N   N17       1.0  0.4759384269097091  0.8092367045502152  0.9166687542919928  1.0000
  N   N18       1.0  0.19076325110748188  0.524061663404971  0.4166686924872957  1.0000
