data_image0
_chemical_formula_structural       C18H36O18
_chemical_formula_sum              "C18 H36 O18"
_cell_length_a       9.32
_cell_length_b       9.320002803089707
_cell_length_c       8.196
_cell_angle_alpha    90.0
_cell_angle_beta     90.0
_cell_angle_gamma    119.99999005091969

_space_group_name_H-M_alt    "P 1"
_space_group_IT_number       1

loop_
  _space_group_symop_operation_xyz
  'x, y, z'

loop_
  _atom_site_type_symbol
  _atom_site_label
  _atom_site_symmetry_multiplicity
  _atom_site_fract_x
  _atom_site_fract_y
  _atom_site_fract_z
  _atom_site_occupancy
  C   C1        1.0  0.1359046432118635  0.1511169988700789  0.9841597437774524  1.0000
  C   C2        1.0  0.8488788402164497  0.9846572684157316  0.9841605136652025  1.0000
  C   C3        1.0  0.015337269086827077  0.8640895660706498  0.9841569375305028  1.0000
  C   C4        1.0  0.8488830014195268  0.8640953569163066  0.4841597437774524  1.0000
  C   C5        1.0  0.0153427309172567  0.15112115925940608  0.4841605136652026  1.0000
  C   C6        1.0  0.13591043306657405  0.984662730940015  0.48415693753050265  1.0000
  C   C7        1.0  0.8026255538741848  0.4843911249157515  0.31756489263055154  1.0000
  C   C8        1.0  0.5156075372469845  0.3181016259961147  0.31756504148365056  1.0000
  C   C9        1.0  0.6818962857413375  0.19737422813503547  0.3175673657881894  1.0000
  C   C10       1.0  0.5156088754555077  0.19737444618998534  0.8175648926305515  1.0000
  C   C11       1.0  0.6818983731210096  0.4843924629802165  0.8175650414836505  1.0000
  C   C12       1.0  0.8026257715947993  0.31810371486341826  0.8175673657881894  1.0000
  C   C13       1.0  0.46926329651585114  0.8177425415295563  0.650801033430942  1.0000
  C   C14       1.0  0.18225117569513843  0.6513953621198906  0.6508022132747682  1.0000
  C   C15       1.0  0.3485986913235442  0.530730039299449  0.6507967337725721  1.0000
  C   C16       1.0  0.18225745909806415  0.5307367036038536  0.15080103343094192  1.0000
  C   C17       1.0  0.3486046374407878  0.8177488242377988  0.15080221327476817  1.0000
  C   C18       1.0  0.4692699603305255  0.6514013090730681  0.150796733772572  1.0000
  H   H1        1.0  0.13732955227146387  0.1525790895214685  0.8491889348462665  1.0000
  H   H2        1.0  0.8474204354554583  0.9846262228422471  0.8491899853587116  1.0000
  H   H3        1.0  0.015369033901993357  0.8626614411945447  0.8491867410932162  1.0000
  H   H4        1.0  0.8474209102511605  0.862670447111763  0.3491889348462665  1.0000
  H   H5        1.0  0.015373777274054489  0.1525795652777227  0.3491899853587116  1.0000
  H   H6        1.0  0.13733855956843494  0.9846309667763549  0.34918674109321624  1.0000
  H   H7        1.0  0.8039907398967093  0.4857922072612298  0.18260697047340166  1.0000
  H   H8        1.0  0.5142080639295552  0.31806564073464694  0.182607060761347  1.0000
  H   H9        1.0  0.6819325733167443  0.19600676465923958  0.18260950829673012  1.0000
  H   H10       1.0  0.5142077930409672  0.19600925990167703  0.6826069704734017  1.0000
  H   H11       1.0  0.6819343595966468  0.48579193593149106  0.682607060761347  1.0000
  H   H12       1.0  0.8039932355619633  0.3180674260595488  0.6826095082967301  1.0000
  H   H13       1.0  0.47067093128610393  0.8191858175078301  0.5158444875549049  1.0000
  H   H14       1.0  0.18081518139504635  0.6513711567815089  0.5158448670082967  1.0000
  H   H15       1.0  0.3486268052980078  0.5293188595230542  0.5158394863347975  1.0000
  H   H16       1.0  0.18081418229834081  0.5293290684593426  0.01584448755490483  1.0000
  H   H17       1.0  0.3486288440069941  0.8191848189152757  0.01584486700829673  1.0000
  H   H18       1.0  0.4706811403444154  0.6513731948519209  0.01583948633479746  1.0000
  H   H19       1.0  0.23805904160587135  0.2645089501645324  0.03549508662762323  1.0000
  H   H20       1.0  0.7354862274142333  0.9734182702791103  0.0354952635431918  1.0000
  H   H21       1.0  0.026577020295785625  0.7619365856559489  0.03549194973157638  1.0000
  H   H22       1.0  0.7354910503876665  0.7619409591444317  0.5354950866276232  1.0000
  H   H23       1.0  0.026581730043314055  0.2645137733913491  0.5354952635431919  1.0000
  H   H24       1.0  0.23806341527350713  0.9734229807616065  0.5354919497315764  1.0000
  H   H25       1.0  0.904839441815359  0.5977767935019624  0.3688443094192289  1.0000
  H   H26       1.0  0.40222318455371653  0.30693137339927845  0.3688450024402148  1.0000
  H   H27       1.0  0.6930693680544436  0.09516090349086151  0.36884545265983404  1.0000
  H   H28       1.0  0.40222320657020494  0.09516055906315665  0.868844309419229  1.0000
  H   H29       1.0  0.6930686261661644  0.5977768145640883  0.8688450024402148  1.0000
  H   H30       1.0  0.9048390962969326  0.3069306325080284  0.8688454526598341  1.0000
  H   H31       1.0  0.5714554731642674  0.9311216201482773  0.702137559785261  1.0000
  H   H32       1.0  0.06887359106788901  0.640206334496293  0.702135574670571  1.0000
  H   H33       1.0  0.3597870372548541  0.4285402633509099  0.7021304868228405  1.0000
  H   H34       1.0  0.06887838023927426  0.4285445265729691  0.2021375597852611  1.0000
  H   H35       1.0  0.3597936657156575  0.931126408684534  0.202135574670571  1.0000
  H   H36       1.0  0.5714597368004014  0.640212962871189  0.2021304868228404  1.0000
  O   O1        1.0  0.15238886307076502  0.015337269059984934  0.041548117374328945  1.0000
  O   O2        1.0  0.9846575177833256  0.13691807204733775  0.04155791239629088  1.0000
  O   O3        1.0  0.8630741260340807  0.8476056984200928  0.041551429965836995  1.0000
  O   O4        1.0  0.984662730719344  0.8476111374043531  0.541548117374329  1.0000
  O   O5        1.0  0.863081927973081  0.015342482555604012  0.5415579123962909  1.0000
  O   O6        1.0  0.1523943022796101  0.13692587494548628  0.541551429965837  1.0000
  O   O7        1.0  0.8190226107959065  0.34852910785790747  0.37496248047828207  1.0000
  O   O8        1.0  0.6514714861030594  0.47036353229195577  0.3749640080527087  1.0000
  O   O9        1.0  0.5296366629778684  0.18097938389565077  0.37496305392874574  1.0000
  O   O10       1.0  0.6514708926385865  0.1809773904273877  0.8749624804782822  1.0000
  O   O11       1.0  0.5296364685741597  0.34852851440153826  0.8749640080527087  1.0000
  O   O12       1.0  0.8190206163134072  0.47036333777702893  0.8749630539287457  1.0000
  O   O13       1.0  0.48568882217814524  0.6819023460730286  0.7081531381161542  1.0000
  O   O14       1.0  0.3180920620636455  0.8036584739126986  0.708165439238653  1.0000
  O   O15       1.0  0.19633151136950674  0.5143036278892281  0.7081556893606638  1.0000
  O   O16       1.0  0.31809765447157706  0.5143111780418665  0.20815313811615424  1.0000
  O   O17       1.0  0.1963415262104092  0.6819079386869128  0.208165439238653  1.0000
  O   O18       1.0  0.48569637184943354  0.8036684883340601  0.20815568936066373  1.0000
