data_image0
_chemical_formula_structural       C16H16N8O8
_chemical_formula_sum              "C16 H16 N8 O8"
_cell_length_a       11.938
_cell_length_b       12.376
_cell_length_c       3.655203054551142
_cell_angle_alpha    90.0
_cell_angle_beta     120.90004469886263
_cell_angle_gamma    90.0

_space_group_name_H-M_alt    "P 1"
_space_group_IT_number       1

loop_
  _space_group_symop_operation_xyz
  'x, y, z'

loop_
  _atom_site_type_symbol
  _atom_site_label
  _atom_site_symmetry_multiplicity
  _atom_site_fract_x
  _atom_site_fract_y
  _atom_site_fract_z
  _atom_site_occupancy
  C   C1        1.0  0.1495806180669537  0.20962326923076924  0.001831121668154572  1.0000
  C   C2        1.0  0.8504172125118762  0.7903765384615385  0.9981635091187349  1.0000
  C   C3        1.0  0.35040763510062584  0.7096136207175178  0.9981835799005229  1.0000
  C   C4        1.0  0.6495922241722842  0.2903861683904331  0.0018164200994771073  1.0000
  C   C5        1.0  0.1802150630244744  0.011536781674208145  0.035721859456701956  1.0000
  C   C6        1.0  0.8197850388558482  0.988463218325792  0.9642810419589338  1.0000
  C   C7        1.0  0.31977683961424724  0.5115306658047835  0.9642334778727203  1.0000
  C   C8        1.0  0.680221971360035  0.4884699321266968  0.035769178038515495  1.0000
  C   C9        1.0  0.3053878289627985  0.028221001939237232  0.08067802576202016  1.0000
  C   C10       1.0  0.6946118045040781  0.971779532967033  0.9193227490116057  1.0000
  C   C11       1.0  0.1946046394742197  0.5282068907563026  0.9192860668282107  1.0000
  C   C12       1.0  0.8053947519309634  0.471793658694247  0.08071802703736768  1.0000
  C   C13       1.0  0.3459747318660334  0.13116683338720106  0.08159387833184542  1.0000
  C   C14       1.0  0.6540236569644499  0.868834040885585  0.9184019321515112  1.0000
  C   C15       1.0  0.15400901503586986  0.6311486094053006  0.91837985269736  1.0000
  C   C16       1.0  0.8459898742303608  0.36885223981900456  0.08161886876673895  1.0000
  H   H1        1.0  0.43892647567409726  0.15036113687782807  0.10861928325468691  1.0000
  H   H2        1.0  0.5610714306487101  0.8496403579508727  0.89137445478893  1.0000
  H   H3        1.0  0.06105820288784703  0.6503385738526181  0.8913636972324959  1.0000
  H   H4        1.0  0.9389404417926761  0.34966258403361344  0.10863372975385792  1.0000
  H   H5        1.0  0.30264448463596694  0.2961125387847447  0.02928194426731284  1.0000
  H   H6        1.0  0.6973525825916527  0.7038884550743375  0.9707120297155976  1.0000
  H   H7        1.0  0.19733581766704172  0.7960941249191985  0.9706955043999489  1.0000
  H   H8        1.0  0.8026641670778233  0.20390634049773756  0.029304941971687284  1.0000
  H   H9        1.0  0.019533000932003636  0.09542218083387202  0.9753854164009693  1.0000
  H   H10       1.0  0.9804669995727457  0.9045767598577893  0.02461795370488458  1.0000
  H   H11       1.0  0.4804629108688903  0.5954213162572721  0.02462110700165795  1.0000
  H   H12       1.0  0.5195365928702347  0.4045782595345831  0.9753815010840453  1.0000
  H   H13       1.0  0.3640143059120296  0.958341713800905  0.10525316923861752  1.0000
  H   H14       1.0  0.635986132345184  0.04165916936005172  0.8947485365387068  1.0000
  H   H15       1.0  0.1359781300683393  0.4583239221073045  0.8947011063639841  1.0000
  H   H16       1.0  0.8640207702943121  0.5416767453135101  0.10530131360795818  1.0000
  N   N1        1.0  0.27084335138568466  0.21867816822883002  0.04217324002040556  1.0000
  N   N2        1.0  0.7291542179238397  0.7813222786037493  0.957819920928453  1.0000
  N   N3        1.0  0.22913806591236524  0.71866133645766  0.9578023498278281  1.0000
  N   N4        1.0  0.7708612977165649  0.28133914350355527  0.04219532903966331  1.0000
  N   N5        1.0  0.11021980162737251  0.10438191095669037  0.002125774773625813  1.0000
  N   N6        1.0  0.8897796342670936  0.8956176858435683  0.9978763965055478  1.0000
  N   N7        1.0  0.38977402276335094  0.604375984162896  0.9978717829358501  1.0000
  N   N8        1.0  0.6102252285531905  0.39562359405300584  0.0021298590740976915  1.0000
  O   O1        1.0  0.08156984352963785  0.28819377181641886  0.9688759373804362  1.0000
  O   O2        1.0  0.9184263576831913  0.7118052973497092  0.031111809718148194  1.0000
  O   O3        1.0  0.41841859360089406  0.7881897204266323  0.031196116566764444  1.0000
  O   O4        1.0  0.5815813718144649  0.21180999111182935  0.9688044892233133  1.0000
  O   O5        1.0  0.13044351286075492  0.920939270361991  0.024151364621859454  1.0000
  O   O6        1.0  0.8695575696023479  0.07906063671622496  0.9758565584746843  1.0000
  O   O7        1.0  0.3695435046721649  0.4209323206205559  0.9757365450835352  1.0000
  O   O8        1.0  0.6304567759504165  0.5790676801874597  0.024275675934192067  1.0000
